Info: SIMULATION PARAMETERS:
Info: TIMESTEP               2
Info: NUMBER OF STEPS        0
Info: STEPS PER CYCLE        10
Info: FIRST LDB TIMESTEP     50
Info: LAST LDB TIMESTEP     -1
Info: HOM BACKGROUND SCALING 1
Info: MIN ATOMS PER PATCH    40
Info: INITIAL TEMPERATURE    310
Info: CENTER OF MASS MOVING INITIALLY? NO
Info: DIELECTRIC             1
Info: EXCLUDE                SCALED ONE-FOUR
Info: 1-4 ELECTROSTATICS SCALED BY 1
Info: MODIFIED 1-4 VDW PARAMETERS WILL BE USED
Info: DCD FILENAME           ubq_ws_eq.dcd
Info: DCD FREQUENCY          250
Info: DCD FIRST STEP         250
Info: NO EXTENDED SYSTEM TRAJECTORY OUTPUT
Info: NO VELOCITY DCD OUTPUT
Info: NO FORCE DCD OUTPUT
Info: OUTPUT FILENAME        ubq_ws_eq
Info: BINARY OUTPUT FILES WILL BE USED
Info: RESTART FILENAME       ubq_ws_eq.restart
Info: RESTART FREQUENCY      500
Info: BINARY RESTART FILES WILL BE USED
Info: SWITCHING ACTIVE
Info: SWITCHING ON           10
Info: SWITCHING OFF          12
Info: PAIRLIST DISTANCE      14
Info: PAIRLIST SHRINK RATE   0.01
Info: PAIRLIST GROW RATE     0.01
Info: PAIRLIST TRIGGER       0.3
Info: PAIRLISTS PER CYCLE    2
Info: PAIRLISTS ENABLED
Info: MARGIN                 0
Info: HYDROGEN GROUP CUTOFF  2.5
Info: PATCH DIMENSION        16.5
Info: ENERGY OUTPUT STEPS    100
Info: CROSSTERM ENERGY INCLUDED IN DIHEDRAL
Info: TIMING OUTPUT STEPS    1000
Info: PRESSURE OUTPUT STEPS  100
Info: SPHERICAL BOUNDARY CONDITIONS ACTIVE
Info: RADIUS #1              26
Info: FORCE CONSTANT #1      10
Info: EXPONENT #1            2
Info: SPHERE BOUNDARY CENTER(30.3082, 28.805, 15.354)
Info: LANGEVIN DYNAMICS ACTIVE
Info: LANGEVIN TEMPERATURE   310
Info: LANGEVIN USING BBK INTEGRATOR
Info: LANGEVIN DAMPING COEFFICIENT IS 1 INVERSE PS
Info: LANGEVIN DYNAMICS NOT APPLIED TO HYDROGENS
Info: USING VERLET I (r-RESPA) MTS SCHEME.
Info: C1 SPLITTING OF LONG RANGE ELECTROSTATICS
Info: PLACING ATOMS IN PATCHES BY HYDROGEN GROUPS
Info: RIGID BONDS TO HYDROGEN : ALL
Info:         ERROR TOLERANCE : 1e-08
Info:          MAX ITERATIONS : 100
Info: RIGID WATER USING SETTLE ALGORITHM
Info: RANDOM NUMBER SEED     1413959576
Info: USE HYDROGEN BONDS?    NO
Info: COORDINATE PDB         ../common/ubq_ws.pdb
Info: STRUCTURE FILE         ../common/ubq_ws.psf
Info: PARAMETER file: CHARMM format!
Info: PARAMETERS             ../common/par_all27_prot_lipid.inp
Info: USING ARITHMETIC MEAN TO COMBINE L-J SIGMA PARAMETERS
Info: SUMMARY OF PARAMETERS:
Info: 180 BONDS
Info: 447 ANGLES
Info: 566 DIHEDRAL
Info: 46 IMPROPER
Info: 6 CROSSTERM
Info: 119 VDW
Info: 0 VDW_PAIRS
Info: 0 NBTHOLE_PAIRS
Info: STRUCTURE SUMMARY:
Info: 6682 ATOMS
Info: 4871 BONDS
Info: 4074 ANGLES
Info: 3293 DIHEDRALS
Info: 204 IMPROPERS
Info: 74 CROSSTERMS
Info: 0 EXCLUSIONS
Info: 6080 RIGID BONDS
Info: 13966 DEGREES OF FREEDOM
Info: 2419 HYDROGEN GROUPS
Info: 4 ATOMS IN LARGEST HYDROGEN GROUP
Info: 2419 MIGRATION GROUPS
Info: 4 ATOMS IN LARGEST MIGRATION GROUP
Info: TOTAL MASS = 41298.8 amu
Info: TOTAL CHARGE = 1.00955e-06 e
Info: ADDED 12209 IMPLICIT EXCLUSIONS
Info: NONBONDED TABLE R-SQUARED SPACING: 0.0625
Info: NONBONDED TABLE SIZE: 769 POINTS
Info: REMOVING COM VELOCITY 0.0203236 0.179224 -0.243008
TCL: Minimizing for 100 steps
ETITLE: TS BOND ANGLE DIHED IMPRP ELECT VDW BOUNDARY MISC KINETIC TOTAL TEMP POTENTIAL TOTAL3 TEMPAVG
ENERGY: 0 1947.9207 1238.5705 263.8635 10.7301 -18781.7697 1984.0070 71.1903 0.0000 0.0000 -13265.4876 0.0000 -13265.4876 -13265.4876 0.0000
ENERGY: 20 562.2551 767.5271 262.8619 8.5259 -19982.2344 1090.3099 62.6729 0.0000 0.0000 -17228.0816 0.0000 -17228.0816 -17228.0816 0.0000
ENERGY: 40 524.1566 656.8409 271.9420 14.6055 -21844.5531 965.6348 40.8605 0.0000 0.0000 -19370.5128 0.0000 -19370.5128 -19370.5128 0.0000
ENERGY: 60 594.6485 680.4081 268.2127 10.2167 -22878.5902 1015.6251 20.5492 0.0000 0.0000 -20288.9299 0.0000 -20288.9299 -20288.9299 0.0000
ENERGY: 80 668.6663 750.9912 266.6673 18.6575 -23704.2799 1141.0207 9.0960 0.0000 0.0000 -20849.1808 0.0000 -20849.1808 -20849.1808 0.0000
ENERGY: 100 704.5332 718.9274 261.2860 12.1460 -24321.0784 1337.2052 4.5811 0.0000 0.0000 -21282.3994 0.0000 -21282.3994 -21282.3994 0.0000
TCL: Running for 2500 steps
ETITLE: TS BOND ANGLE DIHED IMPRP ELECT VDW BOUNDARY MISC KINETIC TOTAL TEMP POTENTIAL TOTAL3 TEMPAVG
ENERGY: 100 89.7780 255.8840 261.2860 12.1291 -22204.0004 1305.7685 5.3408 0.0000 4275.0015 -15998.8125 308.0737 -20273.8140 -16005.5063 308.0737
ENERGY: 600 208.0839 614.8634 341.9374 46.1055 -23013.8759 1818.5093 3.1232 0.0000 4082.1453 -15899.1080 294.1757 -19981.2533 -15885.8794 298.2371
ENERGY: 1100 217.0448 668.8631 297.0948 40.3703 -22663.6638 1572.2747 9.4092 0.0000 4088.5742 -15770.0327 294.6390 -19858.6069 -15755.0748 303.6219
ENERGY: 1600 230.0570 656.6057 334.7513 47.2421 -22878.1866 1629.3843 7.2178 0.0000 4260.5194 -15712.4091 307.0301 -19972.9285 -15696.8030 306.9749
ENERGY: 2100 241.3036 725.4625 299.4798 44.8875 -22761.3773 1509.4651 3.3151 0.0000 4286.0245 -15651.4392 308.8681 -19937.4637 -15637.4244 308.1405
ENERGY: 2600 224.8168 727.8390 310.8117 40.9416 -22972.7390 1645.2158 1.7984 0.0000 4336.9738 -15684.3420 312.5397 -20021.3157 -15667.9811 306.9971
