Info: SIMULATION PARAMETERS:
Info: TIMESTEP               2
Info: NUMBER OF STEPS        0
Info: STEPS PER CYCLE        10
Info: FIRST LDB TIMESTEP     50
Info: LAST LDB TIMESTEP     -1
Info: HOM BACKGROUND SCALING 1
Info: MIN ATOMS PER PATCH    40
Info: INITIAL TEMPERATURE    310
Info: CENTER OF MASS MOVING INITIALLY? NO
Info: DIELECTRIC             1
Info: EXCLUDE                SCALED ONE-FOUR
Info: 1-4 ELECTROSTATICS SCALED BY 1
Info: MODIFIED 1-4 VDW PARAMETERS WILL BE USED
Info: DCD FILENAME           ubq_ws_eq.dcd
Info: DCD FREQUENCY          250
Info: DCD FIRST STEP         250
Info: NO EXTENDED SYSTEM TRAJECTORY OUTPUT
Info: NO VELOCITY DCD OUTPUT
Info: NO FORCE DCD OUTPUT
Info: OUTPUT FILENAME        ubq_ws_eq
Info: BINARY OUTPUT FILES WILL BE USED
Info: RESTART FILENAME       ubq_ws_eq.restart
Info: RESTART FREQUENCY      500
Info: BINARY RESTART FILES WILL BE USED
Info: SWITCHING ACTIVE
Info: SWITCHING ON           10
Info: SWITCHING OFF          12
Info: PAIRLIST DISTANCE      14
Info: PAIRLIST SHRINK RATE   0.01
Info: PAIRLIST GROW RATE     0.01
Info: PAIRLIST TRIGGER       0.3
Info: PAIRLISTS PER CYCLE    2
Info: PAIRLISTS ENABLED
Info: MARGIN                 0
Info: HYDROGEN GROUP CUTOFF  2.5
Info: PATCH DIMENSION        16.5
Info: ENERGY OUTPUT STEPS    100
Info: CROSSTERM ENERGY INCLUDED IN DIHEDRAL
Info: TIMING OUTPUT STEPS    1000
Info: PRESSURE OUTPUT STEPS  100
Info: SPHERICAL BOUNDARY CONDITIONS ACTIVE
Info: RADIUS #1              26
Info: FORCE CONSTANT #1      10
Info: EXPONENT #1            2
Info: SPHERE BOUNDARY CENTER(30.3082, 28.805, 15.354)
Info: LANGEVIN DYNAMICS ACTIVE
Info: LANGEVIN TEMPERATURE   310
Info: LANGEVIN USING BBK INTEGRATOR
Info: LANGEVIN DAMPING COEFFICIENT IS 1 INVERSE PS
Info: LANGEVIN DYNAMICS NOT APPLIED TO HYDROGENS
Info: USING VERLET I (r-RESPA) MTS SCHEME.
Info: C1 SPLITTING OF LONG RANGE ELECTROSTATICS
Info: PLACING ATOMS IN PATCHES BY HYDROGEN GROUPS
Info: RIGID BONDS TO HYDROGEN : ALL
Info:         ERROR TOLERANCE : 1e-08
Info:          MAX ITERATIONS : 100
Info: RIGID WATER USING SETTLE ALGORITHM
Info: RANDOM NUMBER SEED     1413789069
Info: USE HYDROGEN BONDS?    NO
Info: COORDINATE PDB         ../common/ubq_ws.pdb
Info: STRUCTURE FILE         ../common/ubq_ws.psf
Info: PARAMETER file: CHARMM format!
Info: PARAMETERS             ../common/par_all27_prot_lipid.inp
Info: USING ARITHMETIC MEAN TO COMBINE L-J SIGMA PARAMETERS
Info: SUMMARY OF PARAMETERS:
Info: 180 BONDS
Info: 447 ANGLES
Info: 566 DIHEDRAL
Info: 46 IMPROPER
Info: 6 CROSSTERM
Info: 119 VDW
Info: 0 VDW_PAIRS
Info: 0 NBTHOLE_PAIRS
Info: STRUCTURE SUMMARY:
Info: 6682 ATOMS
Info: 4871 BONDS
Info: 4074 ANGLES
Info: 3293 DIHEDRALS
Info: 204 IMPROPERS
Info: 74 CROSSTERMS
Info: 0 EXCLUSIONS
Info: 6080 RIGID BONDS
Info: 13966 DEGREES OF FREEDOM
Info: 2419 HYDROGEN GROUPS
Info: 4 ATOMS IN LARGEST HYDROGEN GROUP
Info: 2419 MIGRATION GROUPS
Info: 4 ATOMS IN LARGEST MIGRATION GROUP
Info: TOTAL MASS = 41298.8 amu
Info: TOTAL CHARGE = 1.00955e-06 e
Info: ADDED 12209 IMPLICIT EXCLUSIONS
Info: NONBONDED TABLE R-SQUARED SPACING: 0.0625
Info: NONBONDED TABLE SIZE: 769 POINTS
Info: REMOVING COM VELOCITY -0.011554 0.173647 -0.0111795
TCL: Minimizing for 100 steps
ETITLE: TS BOND ANGLE DIHED IMPRP ELECT VDW BOUNDARY MISC KINETIC TOTAL TEMP POTENTIAL TOTAL3 TEMPAVG
ENERGY: 0 1947.9207 1238.5705 263.8635 10.7301 -18781.7697 1984.0070 71.1903 0.0000 0.0000 -13265.4876 0.0000 -13265.4876 -13265.4876 0.0000
ENERGY: 20 562.2551 767.5271 262.8619 8.5259 -19982.2344 1090.3099 62.6729 0.0000 0.0000 -17228.0816 0.0000 -17228.0816 -17228.0816 0.0000
ENERGY: 40 524.1566 656.8409 271.9420 14.6055 -21844.5531 965.6348 40.8605 0.0000 0.0000 -19370.5128 0.0000 -19370.5128 -19370.5128 0.0000
ENERGY: 60 594.6485 680.4081 268.2127 10.2167 -22878.5902 1015.6251 20.5492 0.0000 0.0000 -20288.9299 0.0000 -20288.9299 -20288.9299 0.0000
ENERGY: 80 668.6663 750.9912 266.6673 18.6575 -23704.2799 1141.0207 9.0960 0.0000 0.0000 -20849.1808 0.0000 -20849.1808 -20849.1808 0.0000
ENERGY: 100 704.5332 718.9274 261.2860 12.1460 -24321.0784 1337.2052 4.5811 0.0000 0.0000 -21282.3994 0.0000 -21282.3994 -21282.3994 0.0000
TCL: Running for 2500 steps
ETITLE: TS BOND ANGLE DIHED IMPRP ELECT VDW BOUNDARY MISC KINETIC TOTAL TEMP POTENTIAL TOTAL3 TEMPAVG
ENERGY: 100 89.7780 255.8840 261.2860 12.1291 -22204.0004 1305.7685 5.3408 0.0000 4344.0007 -15929.8133 313.0461 -20273.8140 -15936.4643 313.0461
ENERGY: 600 194.8307 620.7020 307.6487 32.3000 -22897.8323 1786.2310 5.3792 0.0000 4221.3342 -15729.4064 304.2062 -19950.7406 -15712.7662 298.5219
ENERGY: 1100 246.4323 650.2114 322.4323 41.1785 -22995.7092 1738.2930 2.7413 0.0000 4338.6834 -15655.7369 312.6629 -19994.4203 -15639.4040 305.9306
ENERGY: 1600 211.8559 691.6496 314.9254 40.7276 -22860.6339 1640.7816 1.8001 0.0000 4275.7906 -15683.1029 308.1306 -19958.8936 -15665.9295 308.5167
ENERGY: 2100 221.6571 674.8715 327.8495 41.8673 -22736.0094 1565.0818 7.6300 0.0000 4177.5262 -15719.5259 301.0492 -19897.0521 -15705.1360 307.0419
ENERGY: 2600 226.9617 695.6878 304.0421 39.0667 -22912.8116 1663.4065 4.5012 0.0000 4352.8847 -15626.2609 313.6863 -19979.1456 -15609.0113 311.5763
