Info: SIMULATION PARAMETERS:
Info: TIMESTEP               2
Info: NUMBER OF STEPS        0
Info: STEPS PER CYCLE        10
Info: FIRST LDB TIMESTEP     50
Info: HOM BACKGROUND SCALING 1
Info: MAX SELF PARTITIONS    50
Info: MAX PAIR PARTITIONS    20
Info: SELF PARTITION ATOMS   125
Info: PAIR PARTITION ATOMS   200
Info: PAIR2 PARTITION ATOMS  400
Info: MIN ATOMS PER PATCH    100
Info: INITIAL TEMPERATURE    310
Info: CENTER OF MASS MOVING INITIALLY? NO
Info: DIELECTRIC             1
Info: EXCLUDE                SCALED ONE-FOUR
Info: 1-4 SCALE FACTOR       1
Info: DCD FILENAME           ubq_ws_eq.dcd
Info: DCD FREQUENCY          250
Info: DCD FIRST STEP         250
Info: NO EXTENDED SYSTEM TRAJECTORY OUTPUT
Info: NO VELOCITY DCD OUTPUT
Info: OUTPUT FILENAME        ubq_ws_eq
Info: BINARY OUTPUT FILES WILL BE USED
Info: RESTART FILENAME       ubq_ws_eq.restart
Info: RESTART FREQUENCY      500
Info: BINARY RESTART FILES WILL BE USED
Info: SWITCHING ACTIVE
Info: SWITCHING ON           10
Info: SWITCHING OFF          12
Info: PAIRLIST DISTANCE      13.5
Info: PAIRLIST SHRINK RATE   0.01
Info: PAIRLIST GROW RATE     0.01
Info: PAIRLIST TRIGGER       0.3
Info: PAIRLISTS PER CYCLE    2
Info: PAIRLISTS ENABLED
Info: MARGIN                 0
Info: HYDROGEN GROUP CUTOFF  2.5
Info: PATCH DIMENSION        16
Info: ENERGY OUTPUT STEPS    100
Info: CROSSTERM ENERGY INCLUDED IN DIHEDRAL
Info: TIMING OUTPUT STEPS    1000
Info: PRESSURE OUTPUT STEPS  100
Info: SPHERICAL BOUNDARY CONDITIONS ACTIVE
Info: RADIUS #1              26
Info: FORCE CONSTANT #1      10
Info: EXPONENT #1            2
Info: SPHERE BOUNDARY CENTER(30.3082, 28.805, 15.354)
Info: LANGEVIN DYNAMICS ACTIVE
Info: LANGEVIN TEMPERATURE   310
Info: LANGEVIN DAMPING COEFFICIENT IS 5 INVERSE PS
Info: LANGEVIN DYNAMICS NOT APPLIED TO HYDROGENS
Info: USING VERLET I (r-RESPA) MTS SCHEME.
Info: C1 SPLITTING OF LONG RANGE ELECTROSTATICS
Info: PLACING ATOMS IN PATCHES BY HYDROGEN GROUPS
Info: RIGID BONDS TO HYDROGEN : ALL
Info:         ERROR TOLERANCE : 1e-08
Info:          MAX ITERATIONS : 100
Info: RIGID WATER USING SETTLE ALGORITHM
Info: RANDOM NUMBER SEED     1192664864
Info: USE HYDROGEN BONDS?    NO
Info: COORDINATE PDB         ../common/ubq_ws.pdb
Info: STRUCTURE FILE         ../common/ubq_ws.psf
Info: PARAMETER file: CHARMM format!
Info: PARAMETERS             ../common/par_all27_prot_lipid.inp
Info: USING ARITHMETIC MEAN TO COMBINE L-J SIGMA PARAMETERS
Info: SUMMARY OF PARAMETERS:
Info: 180 BONDS
Info: 447 ANGLES
Info: 566 DIHEDRAL
Info: 46 IMPROPER
Info: 6 CROSSTERM
Info: 119 VDW
Info: 0 VDW_PAIRS
Info: STRUCTURE SUMMARY:
Info: 6682 ATOMS
Info: 4871 BONDS
Info: 4074 ANGLES
Info: 3293 DIHEDRALS
Info: 204 IMPROPERS
Info: 74 CROSSTERMS
Info: 0 EXCLUSIONS
Info: 6080 RIGID BONDS
Info: 13966 DEGREES OF FREEDOM
Info: 2419 HYDROGEN GROUPS
Info: TOTAL MASS = 41298.8 amu
Info: TOTAL CHARGE = 1.00955e-06 e
Info: REMOVING COM VELOCITY 0.0879591 0.114937 -0.0605256
Info: NONBONDED TABLE R-SQUARED SPACING: 0.0625
Info: NONBONDED TABLE SIZE: 769 POINTS
TCL: Minimizing for 100 steps
ETITLE: TS BOND ANGLE DIHED IMPRP ELECT VDW BOUNDARY MISC KINETIC TOTAL TEMP TOTAL2 TOTAL3 TEMPAVG
ENERGY: 0 1947.9207 1238.5705 263.8635 10.7301 -18781.7697 1984.0070 71.1903 0.0000 0.0000 -13265.4876 0.0000 -13265.4876 -13265.4876 0.0000
ENERGY: 20 752.3442 1025.1335 263.4531 27.3435 -19107.3808 1249.8494 68.2116 0.0000 0.0000 -15721.0455 0.0000 -15721.0455 -15721.0455 0.0000
ENERGY: 40 620.8932 844.7456 264.5823 11.8207 -19623.2422 1132.7190 65.0032 0.0000 0.0000 -16683.4782 0.0000 -16683.4782 -16683.4782 0.0000
ENERGY: 60 603.2498 1020.3712 274.7744 24.3251 -21448.8090 975.2379 49.3273 0.0000 0.0000 -18501.5233 0.0000 -18501.5233 -18501.5233 0.0000
ENERGY: 80 568.0866 674.2325 274.5966 16.6804 -21913.6671 980.8595 37.5088 0.0000 0.0000 -19361.7027 0.0000 -19361.7027 -19361.7027 0.0000
ENERGY: 100 704.9296 668.6923 270.5687 14.6603 -22665.4858 984.9609 25.3748 0.0000 0.0000 -19996.2991 0.0000 -19996.2991 -19996.2991 0.0000
TCL: Running for 2500 steps
ETITLE: TS BOND ANGLE DIHED IMPRP ELECT VDW BOUNDARY MISC KINETIC TOTAL TEMP TOTAL2 TOTAL3 TEMPAVG
ENERGY: 100 65.4517 305.2965 270.5671 14.6739 -20750.0454 961.2347 27.6077 0.0000 4228.6169 -14876.5969 304.7310 -14873.0566 -14886.3328 304.7310
ENERGY: 600 229.5774 711.0708 327.1866 39.1790 -22337.1977 1649.9026 6.0100 0.0000 4292.5145 -15081.7569 309.3357 -15065.4222 -15062.3851 311.2736
ENERGY: 1100 247.8497 707.3591 316.3654 45.4339 -22576.9576 1541.6712 6.5629 0.0000 4316.8644 -15394.8511 311.0905 -15376.2630 -15378.1409 311.9768
ENERGY: 1600 221.6698 721.3310 323.7244 45.6621 -22687.4501 1583.7030 3.2534 0.0000 4389.8870 -15398.2194 316.3528 -15378.7285 -15383.1465 312.4970
ENERGY: 2100 247.5895 661.6274 338.3480 41.6177 -22723.9951 1662.4663 3.4634 0.0000 4326.7885 -15442.0944 311.8057 -15422.3284 -15428.6334 312.2757
ENERGY: 2600 228.4799 723.8676 314.9539 43.4451 -22951.4607 1714.9092 6.9291 0.0000 4294.4595 -15624.4164 309.4759 -15606.4515 -15605.5221 306.2225
